<?xml version="1.0" ?>
<!-- Generated by MOSAIC scenario-convert 23.1 -->
<routes>
	<vType id="default" length="7.5" maxSpeed="50" minGap="2.0" carFollowModel="Krauss" accel="0.80" decel="4.5" sigma="0.5" tau="1"/>
	<route id="r_0" edges="E7 -E8" />
	<route id="r_2" edges="-E9 -E8" />
	<route id="r_1" edges="-E9 E10" />
	<route id="r_4" edges="-E10 -E7" />
	<route id="r_3" edges="-E10 E9" />
	<route id="r_5" edges="E8 -E7" />
</routes>