<edges>
	<edge id="-E8" from="J9" to="J10" numLanes="1" shape="547460.60,4600428.71,0.00 547560.60,4600428.71,0.00" speed="13.89" />
	<edge id="-E9" from="J11" to="J9" numLanes="1" shape="547460.60,4600328.71,0.00 547460.60,4600428.71,0.00" speed="13.89" />
	<edge id="-E10" from="J12" to="J9" numLanes="1" shape="547460.60,4600528.71,0.00 547460.60,4600428.71,0.00" speed="13.89" />
	<edge id="E7" from="J8" to="J9" numLanes="1" shape="547360.60,4600428.71,0.00 547460.60,4600428.71,0.00" speed="13.89" />
	<edge id="E8" from="J10" to="J9" numLanes="1" shape="547560.60,4600428.71,0.00 547460.60,4600428.71,0.00" speed="13.89" />
	<edge id="E9" from="J9" to="J11" numLanes="1" shape="547460.60,4600428.71,0.00 547460.60,4600328.71,0.00" speed="13.89" />
	<edge id="E10" from="J9" to="J12" numLanes="1" shape="547460.60,4600428.71,0.00 547460.60,4600528.71,0.00" speed="13.89" />
	<edge id="-E7" from="J9" to="J8" numLanes="1" shape="547460.60,4600428.71,0.00 547360.60,4600428.71,0.00" speed="13.89" />
</edges>
